src/NexusPy/modules/Electrical-System-PandaPower/PDWCaseManger/assets/3_barras.PWF
TITU
CASO 3 BARRAS EXEMPLO
DBAR
    1  1          1.000   0.00                                          1
    2  1          1.000   0.00     100.0   50.0                         1
    3  1          1.000   0.00     150.0   80.0                         1
9999
DLIN
    1    2 1  0.0200  0.0600  0.0300                                    1
    2    3 1  0.0100  0.0300  0.0200                                    1
    3    1 1  0.0120  0.0500  0.0250                                    1
9999
FIM
